07_CYME/Mocksville_Main_2402.sxst_DSS/Elements/Loads.dss
New Load.254448652_2 Bus1=254448652.2 Phases=1 kV=13.8564 XFKVA=25.0 PF=0.95 yearly=YearlyB daily=DailyB
New Load.254449463_1 Bus1=254449463.1 Phases=1 kV=13.8564 XFKVA=25.0 PF=0.95 yearly=YearlyA daily=DailyA
New Load.254449184_3 Bus1=254449184.3 Phases=1 kV=13.8564 XFKVA=25.0 PF=0.95 yearly=YearlyC daily=DailyC
New Load.254460603_3 Bus1=254460603.3 Phases=1 kV=13.8564 XFKVA=25.0 PF=0.95 yearly=YearlyC daily=DailyC
New Load.254449204_1 Bus1=254449204.1 Phases=1 kV=13.8564 XFKVA=25.0 PF=0.95 yearly=YearlyA daily=DailyA
New Load.254449204_2 Bus1=254449204.2 Phases=1 kV=13.8564 XFKVA=25.0 PF=0.95 yearly=YearlyB daily=DailyB
New Load.254449204_3 Bus1=254449204.3 Phases=1 kV=13.8564 XFKVA=25.0 PF=0.95 yearly=YearlyC daily=DailyC
New Load.254455205_2 Bus1=254455205.2 Phases=1 kV=13.8564 XFKVA=25.0 PF=0.95 yearly=YearlyB daily=DailyB
New Load.254460303_3 Bus1=254460303.3 Phases=1 kV=13.8564 XFKVA=50.0 PF=0.95 yearly=YearlyC daily=DailyC
New Load.259498703_2 Bus1=259498703.2 Phases=1 kV=13.8564 XFKVA=50.0 PF=0.95 yearly=YearlyB daily=DailyB
New Load.254460094_3 Bus1=254460094.3 Phases=1 kV=13.8564 XFKVA=15.0 PF=0.95 yearly=YearlyC daily=DailyC
New Load.254449333_2 Bus1=254449333.2 Phases=1 kV=13.8564 XFKVA=25.0 PF=0.95 yearly=YearlyB daily=DailyB
New Load.254460638_1 Bus1=254460638.1 Phases=1 kV=13.8564 XFKVA=25.0 PF=0.95 yearly=YearlyA daily=DailyA
New Load.254455235_2 Bus1=254455235.2 Phases=1 kV=13.8564 XFKVA=10.0 PF=0.95 yearly=YearlyB daily=DailyB
New Load.259565007_1 Bus1=259565007.1 Phases=1 kV=13.8564 XFKVA=25.0 PF=0.95 yearly=YearlyA daily=DailyA
New Load.259565007_2 Bus1=259565007.2 Phases=1 kV=13.8564 XFKVA=25.0 PF=0.95 yearly=YearlyB daily=DailyB
New Load.259565007_3 Bus1=259565007.3 Phases=1 kV=13.8564 XFKVA=25.0 PF=0.95 yearly=YearlyC daily=DailyC
New Load.254460548_2 Bus1=254460548.2 Phases=1 kV=13.8564 XFKVA=25.0 PF=0.95 yearly=YearlyB daily=DailyB
New Load.254432857_1 Bus1=254432857.1 Phases=1 kV=13.8564 XFKVA=15.0 PF=0.95 yearly=YearlyA daily=DailyA
New Load.254466522_3 Bus1=254466522.3 Phases=1 kV=13.8564 XFKVA=10.0 PF=0.95 yearly=YearlyC daily=DailyC
New Load.620370082_3 Bus1=620370082.3 Phases=1 kV=13.8564 XFKVA=25.0 PF=0.95 yearly=YearlyC daily=DailyC
New Load.254454706_1 Bus1=254454706.1 Phases=1 kV=13.8564 XFKVA=25.0 PF=0.95 yearly=YearlyA daily=DailyA
New Load.259509901_2 Bus1=259509901.2 Phases=1 kV=13.8564 XFKVA=25.0 PF=0.95 yearly=YearlyB daily=DailyB
New Load.254455596_1 Bus1=254455596.1 Phases=1 kV=13.8564 XFKVA=10.0 PF=0.95 yearly=YearlyA daily=DailyA
New Load.254460418_2 Bus1=254460418.2 Phases=1 kV=13.8564 XFKVA=25.0 PF=0.95 yearly=YearlyB daily=DailyB
New Load.254454380_2 Bus1=254454380.2 Phases=1 kV=13.8564 XFKVA=25.0 PF=0.95 yearly=YearlyB daily=DailyB
New Load.260848169_3 Bus1=260848169.3 Phases=1 kV=13.8564 XFKVA=15.0 PF=0.95 yearly=YearlyC daily=DailyC
New Load.254454333_3 Bus1=254454333.3 Phases=1 kV=13.8564 XFKVA=25.0 PF=0.95 yearly=YearlyC daily=DailyC
New Load.254459862_3 Bus1=254459862.3 Phases=1 kV=13.8564 XFKVA=25.0 PF=0.95 yearly=YearlyC daily=DailyC
New Load.254459939_2 Bus1=254459939.2 Phases=1 kV=13.8564 XFKVA=25.0 PF=0.95 yearly=YearlyB daily=DailyB
New Load.254454666_1 Bus1=254454666.1 Phases=1 kV=13.8564 XFKVA=25.0 PF=0.95 yearly=YearlyA daily=DailyA
New Load.254460353_2 Bus1=254460353.2 Phases=1 kV=13.8564 XFKVA=25.0 PF=0.95 yearly=YearlyB daily=DailyB
New Load.254455080_2 Bus1=254455080.2 Phases=1 kV=13.8564 XFKVA=25.0 PF=0.95 yearly=YearlyB daily=DailyB
New Load.260117542_1 Bus1=260117542.1 Phases=1 kV=13.8564 XFKVA=166.7 PF=0.95 yearly=YearlyA daily=DailyA
New Load.260117542_2 Bus1=260117542.2 Phases=1 kV=13.8564 XFKVA=166.7 PF=0.95 yearly=YearlyB daily=DailyB
New Load.260117542_3 Bus1=260117542.3 Phases=1 kV=13.8564 XFKVA=166.7 PF=0.95 yearly=YearlyC daily=DailyC
New Load.254449338_2 Bus1=254449338.2 Phases=1 kV=13.8564 XFKVA=25.0 PF=0.95 yearly=YearlyB daily=DailyB
New Load.254449388_2 Bus1=254449388.2 Phases=1 kV=13.8564 XFKVA=15.0 PF=0.95 yearly=YearlyB daily=DailyB
New Load.254444588_3 Bus1=254444588.3 Phases=1 kV=13.8564 XFKVA=15.0 PF=0.95 yearly=YearlyC daily=DailyC
New Load.254448920_1 Bus1=254448920.1 Phases=1 kV=13.8564 XFKVA=25.0 PF=0.95 yearly=YearlyA daily=DailyA
New Load.254466404_1 Bus1=254466404.1 Phases=1 kV=13.8564 XFKVA=15.0 PF=0.95 yearly=YearlyA daily=DailyA
New Load.254466404_2 Bus1=254466404.2 Phases=1 kV=13.8564 XFKVA=15.0 PF=0.95 yearly=YearlyB daily=DailyB
New Load.254466404_3 Bus1=254466404.3 Phases=1 kV=13.8564 XFKVA=15.0 PF=0.95 yearly=YearlyC daily=DailyC
New Load.254461027_3 Bus1=254461027.3 Phases=1 kV=13.8564 XFKVA=25.0 PF=0.95 yearly=YearlyC daily=DailyC
New Load.254454475_1 Bus1=254454475.1 Phases=1 kV=13.8564 XFKVA=10.0 PF=0.95 yearly=YearlyA daily=DailyA
New Load.254460134_2 Bus1=254460134.2 Phases=1 kV=13.8564 XFKVA=25.0 PF=0.95 yearly=YearlyB daily=DailyB
New Load.254455010_2 Bus1=254455010.2 Phases=1 kV=13.8564 XFKVA=25.0 PF=0.95 yearly=YearlyB daily=DailyB
New Load.254459989_3 Bus1=254459989.3 Phases=1 kV=13.8564 XFKVA=10.0 PF=0.95 yearly=YearlyC daily=DailyC
New Load.254459772_3 Bus1=254459772.3 Phases=1 kV=13.8564 XFKVA=25.0 PF=0.95 yearly=YearlyC daily=DailyC
New Load.254449565_3 Bus1=254449565.3 Phases=1 kV=13.8564 XFKVA=25.0 PF=0.95 yearly=YearlyC daily=DailyC
New Load.254455035_2 Bus1=254455035.2 Phases=1 kV=13.8564 XFKVA=25.0 PF=0.95 yearly=YearlyB daily=DailyB
New Load.254455170_2 Bus1=254455170.2 Phases=1 kV=13.8564 XFKVA=10.0 PF=0.95 yearly=YearlyB daily=DailyB
New Load.254449383_2 Bus1=254449383.2 Phases=1 kV=13.8564 XFKVA=25.0 PF=0.95 yearly=YearlyB daily=DailyB
New Load.254448796_2 Bus1=254448796.2 Phases=1 kV=13.8564 XFKVA=25.0 PF=0.95 yearly=YearlyB daily=DailyB
New Load.254455429_1 Bus1=254455429.1 Phases=1 kV=13.8564 XFKVA=25.0 PF=0.95 yearly=YearlyA daily=DailyA
New Load.254455651_1 Bus1=254455651.1 Phases=1 kV=13.8564 XFKVA=25.0 PF=0.95 yearly=YearlyA daily=DailyA
New Load.254461051_2 Bus1=254461051.2 Phases=1 kV=13.8564 XFKVA=25.0 PF=0.95 yearly=YearlyB daily=DailyB
New Load.254460139_2 Bus1=254460139.2 Phases=1 kV=13.8564 XFKVA=15.0 PF=0.95 yearly=YearlyB daily=DailyB
New Load.254455641_1 Bus1=254455641.1 Phases=1 kV=13.8564 XFKVA=10.0 PF=0.95 yearly=YearlyA daily=DailyA
New Load.254448891_3 Bus1=254448891.3 Phases=1 kV=13.8564 XFKVA=25.0 PF=0.95 yearly=YearlyC daily=DailyC
New Load.261193271_1 Bus1=261193271.1 Phases=1 kV=13.8564 XFKVA=666.7 PF=0.95 yearly=YearlyA daily=DailyA
New Load.261193271_2 Bus1=261193271.2 Phases=1 kV=13.8564 XFKVA=666.7 PF=0.95 yearly=YearlyB daily=DailyB
New Load.261193271_3 Bus1=261193271.3 Phases=1 kV=13.8564 XFKVA=666.7 PF=0.95 yearly=YearlyC daily=DailyC
New Load.254448846_3 Bus1=254448846.3 Phases=1 kV=13.8564 XFKVA=50.0 PF=0.95 yearly=YearlyC daily=DailyC
New Load.254448465_3 Bus1=254448465.3 Phases=1 kV=13.8564 XFKVA=15.0 PF=0.95 yearly=YearlyC daily=DailyC
New Load.254448979_1 Bus1=254448979.1 Phases=1 kV=13.8564 XFKVA=10.0 PF=0.95 yearly=YearlyA daily=DailyA
New Load.254444545_1 Bus1=254444545.1 Phases=1 kV=13.8564 XFKVA=25.0 PF=0.95 yearly=YearlyA daily=DailyA
New Load.254444545_2 Bus1=254444545.2 Phases=1 kV=13.8564 XFKVA=25.0 PF=0.95 yearly=YearlyB daily=DailyB
New Load.254444545_3 Bus1=254444545.3 Phases=1 kV=13.8564 XFKVA=25.0 PF=0.95 yearly=YearlyC daily=DailyC
New Load.254455611_1 Bus1=254455611.1 Phases=1 kV=13.8564 XFKVA=10.0 PF=0.95 yearly=YearlyA daily=DailyA
New Load.620369305_3 Bus1=620369305.3 Phases=1 kV=13.8564 XFKVA=25.0 PF=0.95 yearly=YearlyC daily=DailyC
New Load.254461047_1 Bus1=254461047.1 Phases=1 kV=13.8564 XFKVA=15.0 PF=0.95 yearly=YearlyA daily=DailyA
New Load.254455030_2 Bus1=254455030.2 Phases=1 kV=13.8564 XFKVA=25.0 PF=0.95 yearly=YearlyB daily=DailyB
New Load.254432539_1 Bus1=254432539.1 Phases=1 kV=13.8564 XFKVA=50.0 PF=0.95 yearly=YearlyA daily=DailyA
New Load.254432539_2 Bus1=254432539.2 Phases=1 kV=13.8564 XFKVA=50.0 PF=0.95 yearly=YearlyB daily=DailyB
New Load.254432539_3 Bus1=254432539.3 Phases=1 kV=13.8564 XFKVA=50.0 PF=0.95 yearly=YearlyC daily=DailyC
New Load.254448674_2 Bus1=254448674.2 Phases=1 kV=13.8564 XFKVA=50.0 PF=0.95 yearly=YearlyB daily=DailyB
New Load.254454898_2 Bus1=254454898.2 Phases=1 kV=13.8564 XFKVA=10.0 PF=0.95 yearly=YearlyB daily=DailyB
New Load.254460528_2 Bus1=254460528.2 Phases=1 kV=13.8564 XFKVA=25.0 PF=0.95 yearly=YearlyB daily=DailyB
New Load.254454970_2 Bus1=254454970.2 Phases=1 kV=13.8564 XFKVA=25.0 PF=0.95 yearly=YearlyB daily=DailyB
New Load.254454646_1 Bus1=254454646.1 Phases=1 kV=13.8564 XFKVA=25.0 PF=0.95 yearly=YearlyA daily=DailyA
New Load.385539295_2 Bus1=385539295.2 Phases=1 kV=13.8564 XFKVA=25.0 PF=0.95 yearly=YearlyB daily=DailyB
New Load.254448866_1 Bus1=254448866.1 Phases=1 kV=13.8564 XFKVA=10.0 PF=0.95 yearly=YearlyA daily=DailyA
New Load.254448866_2 Bus1=254448866.2 Phases=1 kV=13.8564 XFKVA=10.0 PF=0.95 yearly=YearlyB daily=DailyB
New Load.254448866_3 Bus1=254448866.3 Phases=1 kV=13.8564 XFKVA=10.0 PF=0.95 yearly=YearlyC daily=DailyC
New Load.254449068_1 Bus1=254449068.1 Phases=1 kV=13.8564 XFKVA=10.0 PF=0.95 yearly=YearlyA daily=DailyA
New Load.254449443_1 Bus1=254449443.1 Phases=1 kV=13.8564 XFKVA=25.0 PF=0.95 yearly=YearlyA daily=DailyA
New Load.260873756_1 Bus1=260873756.1 Phases=1 kV=13.8564 XFKVA=75.0 PF=0.95 yearly=YearlyA daily=DailyA
New Load.254448831_1 Bus1=254448831.1 Phases=1 kV=13.8564 XFKVA=10.0 PF=0.95 yearly=YearlyA daily=DailyA
New Load.254460186_3 Bus1=254460186.3 Phases=1 kV=13.8564 XFKVA=25.0 PF=0.95 yearly=YearlyC daily=DailyC
New Load.254448525_2 Bus1=254448525.2 Phases=1 kV=13.8564 XFKVA=15.0 PF=0.95 yearly=YearlyB daily=DailyB
New Load.254454557_2 Bus1=254454557.2 Phases=1 kV=13.8564 XFKVA=25.0 PF=0.95 yearly=YearlyB daily=DailyB
New Load.254460378_2 Bus1=254460378.2 Phases=1 kV=13.8564 XFKVA=10.0 PF=0.95 yearly=YearlyB daily=DailyB
New Load.292080330_3 Bus1=292080330.3 Phases=1 kV=13.8564 XFKVA=50.0 PF=0.95 yearly=YearlyC daily=DailyC
New Load.254448851_3 Bus1=254448851.3 Phases=1 kV=13.8564 XFKVA=50.0 PF=0.95 yearly=YearlyC daily=DailyC
New Load.254454395_2 Bus1=254454395.2 Phases=1 kV=13.8564 XFKVA=10.0 PF=0.95 yearly=YearlyB daily=DailyB
New Load.254448856_1 Bus1=254448856.1 Phases=1 kV=13.8564 XFKVA=25.0 PF=0.95 yearly=YearlyA daily=DailyA
New Load.254448612_3 Bus1=254448612.3 Phases=1 kV=13.8564 XFKVA=25.0 PF=0.95 yearly=YearlyC daily=DailyC
New Load.254460196_1 Bus1=254460196.1 Phases=1 kV=13.8564 XFKVA=10.0 PF=0.95 yearly=YearlyA daily=DailyA
New Load.254460196_2 Bus1=254460196.2 Phases=1 kV=13.8564 XFKVA=22.5 PF=0.95 yearly=YearlyB daily=DailyB
New Load.254460196_3 Bus1=254460196.3 Phases=1 kV=13.8564 XFKVA=22.5 PF=0.95 yearly=YearlyC daily=DailyC
New Load.260118321_2 Bus1=260118321.2 Phases=1 kV=13.8564 XFKVA=25.0 PF=0.95 yearly=YearlyB daily=DailyB
New Load.254449318_2 Bus1=254449318.2 Phases=1 kV=13.8564 XFKVA=50.0 PF=0.95 yearly=YearlyB daily=DailyB
New Load.260118306_1 Bus1=260118306.1 Phases=1 kV=13.8564 XFKVA=25.0 PF=0.95 yearly=YearlyA daily=DailyA
New Load.254460737_3 Bus1=254460737.3 Phases=1 kV=13.8564 XFKVA=25.0 PF=0.95 yearly=YearlyC daily=DailyC
New Load.254460892_3 Bus1=254460892.3 Phases=1 kV=13.8564 XFKVA=25.0 PF=0.95 yearly=YearlyC daily=DailyC
New Load.254432632_1 Bus1=254432632.1 Phases=1 kV=13.8564 XFKVA=25.0 PF=0.95 yearly=YearlyA daily=DailyA
New Load.254460054_3 Bus1=254460054.3 Phases=1 kV=13.8564 XFKVA=25.0 PF=0.95 yearly=YearlyC daily=DailyC
New Load.254448358_1 Bus1=254448358.1 Phases=1 kV=13.8564 XFKVA=25.0 PF=0.95 yearly=YearlyA daily=DailyA
New Load.254454833_2 Bus1=254454833.2 Phases=1 kV=13.8564 XFKVA=25.0 PF=0.95 yearly=YearlyB daily=DailyB
New Load.254459979_3 Bus1=254459979.3 Phases=1 kV=13.8564 XFKVA=10.0 PF=0.95 yearly=YearlyC daily=DailyC
New Load.254455135_2 Bus1=254455135.2 Phases=1 kV=13.8564 XFKVA=25.0 PF=0.95 yearly=YearlyB daily=DailyB
New Load.254455409_3 Bus1=254455409.3 Phases=1 kV=13.8564 XFKVA=25.0 PF=0.95 yearly=YearlyC daily=DailyC
New Load.254449328_2 Bus1=254449328.2 Phases=1 kV=13.8564 XFKVA=25.0 PF=0.95 yearly=YearlyB daily=DailyB
New Load.254449433_1 Bus1=254449433.1 Phases=1 kV=13.8564 XFKVA=25.0 PF=0.95 yearly=YearlyA daily=DailyA
New Load.254460503_2 Bus1=254460503.2 Phases=1 kV=13.8564 XFKVA=25.0 PF=0.95 yearly=YearlyB daily=DailyB
New Load.254455631_1 Bus1=254455631.1 Phases=1 kV=13.8564 XFKVA=25.0 PF=0.95 yearly=YearlyA daily=DailyA
New Load.254460518_2 Bus1=254460518.2 Phases=1 kV=13.8564 XFKVA=25.0 PF=0.95 yearly=YearlyB daily=DailyB
New Load.260119720_1 Bus1=260119720.1 Phases=1 kV=13.8564 XFKVA=100.0 PF=0.95 yearly=YearlyA daily=DailyA
New Load.260119720_2 Bus1=260119720.2 Phases=1 kV=13.8564 XFKVA=100.0 PF=0.95 yearly=YearlyB daily=DailyB
New Load.260119720_3 Bus1=260119720.3 Phases=1 kV=13.8564 XFKVA=100.0 PF=0.95 yearly=YearlyC daily=DailyC
New Load.254449545_3 Bus1=254449545.3 Phases=1 kV=13.8564 XFKVA=25.0 PF=0.95 yearly=YearlyC daily=DailyC
New Load.254448876_3 Bus1=254448876.3 Phases=1 kV=13.8564 XFKVA=25.0 PF=0.95 yearly=YearlyC daily=DailyC
New Load.254448781_1 Bus1=254448781.1 Phases=1 kV=13.8564 XFKVA=25.0 PF=0.95 yearly=YearlyA daily=DailyA
New Load.260118286_2 Bus1=260118286.2 Phases=1 kV=13.8564 XFKVA=75.0 PF=0.95 yearly=YearlyB daily=DailyB
New Load.254448373_2 Bus1=254448373.2 Phases=1 kV=13.8564 XFKVA=15.0 PF=0.95 yearly=YearlyB daily=DailyB
New Load.254449105_1 Bus1=254449105.1 Phases=1 kV=13.8564 XFKVA=25.0 PF=0.95 yearly=YearlyA daily=DailyA
New Load.254448460_1 Bus1=254448460.1 Phases=1 kV=13.8564 XFKVA=10.0 PF=0.95 yearly=YearlyA daily=DailyA
New Load.254460702_2 Bus1=254460702.2 Phases=1 kV=13.8564 XFKVA=25.0 PF=0.95 yearly=YearlyB daily=DailyB
New Load.254466381_3 Bus1=254466381.3 Phases=1 kV=13.8564 XFKVA=25.0 PF=0.95 yearly=YearlyC daily=DailyC
New Load.260856446_3 Bus1=260856446.3 Phases=1 kV=13.8564 XFKVA=25.0 PF=0.95 yearly=YearlyC daily=DailyC
New Load.411747318_2 Bus1=411747318.2 Phases=1 kV=13.8564 XFKVA=100.0 PF=0.95 yearly=YearlyB daily=DailyB
New Load.260119690_1 Bus1=260119690.1 Phases=1 kV=13.8564 XFKVA=500.0 PF=0.95 yearly=YearlyA daily=DailyA
New Load.260119690_2 Bus1=260119690.2 Phases=1 kV=13.8564 XFKVA=500.0 PF=0.95 yearly=YearlyB daily=DailyB
New Load.260119690_3 Bus1=260119690.3 Phases=1 kV=13.8564 XFKVA=500.0 PF=0.95 yearly=YearlyC daily=DailyC
New Load.695164250_1 Bus1=695164250.1 Phases=1 kV=13.8564 XFKVA=666.7 PF=0.95 yearly=YearlyA daily=DailyA
New Load.695164250_2 Bus1=695164250.2 Phases=1 kV=13.8564 XFKVA=666.7 PF=0.95 yearly=YearlyB daily=DailyB
New Load.695164250_3 Bus1=695164250.3 Phases=1 kV=13.8564 XFKVA=666.7 PF=0.95 yearly=YearlyC daily=DailyC
New Load.254460019_2 Bus1=254460019.2 Phases=1 kV=13.8564 XFKVA=50.0 PF=0.95 yearly=YearlyB daily=DailyB
New Load.254460358_3 Bus1=254460358.3 Phases=1 kV=13.8564 XFKVA=25.0 PF=0.95 yearly=YearlyC daily=DailyC
New Load.254459807_3 Bus1=254459807.3 Phases=1 kV=13.8564 XFKVA=25.0 PF=0.95 yearly=YearlyC daily=DailyC
New Load.254432847_1 Bus1=254432847.1 Phases=1 kV=13.8564 XFKVA=25.0 PF=0.95 yearly=YearlyA daily=DailyA
New Load.260118361_1 Bus1=260118361.1 Phases=1 kV=13.8564 XFKVA=25.0 PF=0.95 yearly=YearlyA daily=DailyA
New Load.254459732_1 Bus1=254459732.1 Phases=1 kV=13.8564 XFKVA=25.0 PF=0.95 yearly=YearlyA daily=DailyA
New Load.260119286_3 Bus1=260119286.3 Phases=1 kV=13.8564 XFKVA=25.0 PF=0.95 yearly=YearlyC daily=DailyC
New Load.254449281_1 Bus1=254449281.1 Phases=1 kV=13.8564 XFKVA=25.0 PF=0.95 yearly=YearlyA daily=DailyA
New Load.259241811_3 Bus1=259241811.3 Phases=1 kV=13.8564 XFKVA=25.0 PF=0.95 yearly=YearlyC daily=DailyC
New Load.251939500_1 Bus1=251939500.1 Phases=1 kV=13.8564 XFKVA=500.0 PF=0.95 yearly=YearlyA daily=DailyA
New Load.251939500_2 Bus1=251939500.2 Phases=1 kV=13.8564 XFKVA=500.0 PF=0.95 yearly=YearlyB daily=DailyB
New Load.251939500_3 Bus1=251939500.3 Phases=1 kV=13.8564 XFKVA=500.0 PF=0.95 yearly=YearlyC daily=DailyC
New Load.254460493_2 Bus1=254460493.2 Phases=1 kV=13.8564 XFKVA=25.0 PF=0.95 yearly=YearlyB daily=DailyB
New Load.254448806_2 Bus1=254448806.2 Phases=1 kV=13.8564 XFKVA=50.0 PF=0.95 yearly=YearlyB daily=DailyB
New Load.254459762_3 Bus1=254459762.3 Phases=1 kV=13.8564 XFKVA=10.0 PF=0.95 yearly=YearlyC daily=DailyC
New Load.254459964_3 Bus1=254459964.3 Phases=1 kV=13.8564 XFKVA=50.0 PF=0.95 yearly=YearlyC daily=DailyC
New Load.261127581_1 Bus1=261127581.1 Phases=1 kV=13.8564 XFKVA=100.0 PF=0.95 yearly=YearlyA daily=DailyA
New Load.261127581_2 Bus1=261127581.2 Phases=1 kV=13.8564 XFKVA=100.0 PF=0.95 yearly=YearlyB daily=DailyB
New Load.261127581_3 Bus1=261127581.3 Phases=1 kV=13.8564 XFKVA=100.0 PF=0.95 yearly=YearlyC daily=DailyC
New Load.254449291_1 Bus1=254449291.1 Phases=1 kV=13.8564 XFKVA=25.0 PF=0.95 yearly=YearlyA daily=DailyA
New Load.254455115_2 Bus1=254455115.2 Phases=1 kV=13.8564 XFKVA=15.0 PF=0.95 yearly=YearlyB daily=DailyB
New Load.254460343_2 Bus1=254460343.2 Phases=1 kV=13.8564 XFKVA=15.0 PF=0.95 yearly=YearlyB daily=DailyB
New Load.254448244_1 Bus1=254448244.1 Phases=1 kV=13.8564 XFKVA=25.0 PF=0.95 yearly=YearlyA daily=DailyA
New Load.260118336_1 Bus1=260118336.1 Phases=1 kV=13.8564 XFKVA=25.0 PF=0.95 yearly=YearlyA daily=DailyA
New Load.254460089_3 Bus1=254460089.3 Phases=1 kV=13.8564 XFKVA=15.0 PF=0.95 yearly=YearlyC daily=DailyC
New Load.254454758_2 Bus1=254454758.2 Phases=1 kV=13.8564 XFKVA=25.0 PF=0.95 yearly=YearlyB daily=DailyB
New Load.474388302_2 Bus1=474388302.2 Phases=1 kV=13.8564 XFKVA=25.0 PF=0.95 yearly=YearlyB daily=DailyB
New Load.620369799_3 Bus1=620369799.3 Phases=1 kV=13.8564 XFKVA=25.0 PF=0.95 yearly=YearlyC daily=DailyC
New Load.254449031_1 Bus1=254449031.1 Phases=1 kV=13.8564 XFKVA=25.0 PF=0.95 yearly=YearlyA daily=DailyA
New Load.254449031_2 Bus1=254449031.2 Phases=1 kV=13.8564 XFKVA=25.0 PF=0.95 yearly=YearlyB daily=DailyB
New Load.254449031_3 Bus1=254449031.3 Phases=1 kV=13.8564 XFKVA=25.0 PF=0.95 yearly=YearlyC daily=DailyC
New Load.254460992_3 Bus1=254460992.3 Phases=1 kV=13.8564 XFKVA=25.0 PF=0.95 yearly=YearlyC daily=DailyC
New Load.254455369_3 Bus1=254455369.3 Phases=1 kV=13.8564 XFKVA=25.0 PF=0.95 yearly=YearlyC daily=DailyC
New Load.254432902_3 Bus1=254432902.3 Phases=1 kV=13.8564 XFKVA=15.0 PF=0.95 yearly=YearlyC daily=DailyC
New Load.254460024_2 Bus1=254460024.2 Phases=1 kV=13.8564 XFKVA=25.0 PF=0.95 yearly=YearlyB daily=DailyB
New Load.254460034_2 Bus1=254460034.2 Phases=1 kV=13.8564 XFKVA=25.0 PF=0.95 yearly=YearlyB daily=DailyB
New Load.254460201_3 Bus1=254460201.3 Phases=1 kV=13.8564 XFKVA=25.0 PF=0.95 yearly=YearlyC daily=DailyC
New Load.254455260_2 Bus1=254455260.2 Phases=1 kV=13.8564 XFKVA=25.0 PF=0.95 yearly=YearlyB daily=DailyB
New Load.254448684_2 Bus1=254448684.2 Phases=1 kV=13.8564 XFKVA=15.0 PF=0.95 yearly=YearlyB daily=DailyB
New Load.254454379_2 Bus1=254454379.2 Phases=1 kV=13.8564 XFKVA=25.0 PF=0.95 yearly=YearlyB daily=DailyB
New Load.254460623_3 Bus1=254460623.3 Phases=1 kV=13.8564 XFKVA=25.0 PF=0.95 yearly=YearlyC daily=DailyC
New Load.254460997_3 Bus1=254460997.3 Phases=1 kV=13.8564 XFKVA=25.0 PF=0.95 yearly=YearlyC daily=DailyC
New Load.254454592_2 Bus1=254454592.2 Phases=1 kV=13.8564 XFKVA=25.0 PF=0.95 yearly=YearlyB daily=DailyB
New Load.260119326_3 Bus1=260119326.3 Phases=1 kV=13.8564 XFKVA=25.0 PF=0.95 yearly=YearlyC daily=DailyC
New Load.254449495_1 Bus1=254449495.1 Phases=1 kV=13.8564 XFKVA=50.0 PF=0.95 yearly=YearlyA daily=DailyA
New Load.254449495_2 Bus1=254449495.2 Phases=1 kV=13.8564 XFKVA=50.0 PF=0.95 yearly=YearlyB daily=DailyB
New Load.254449495_3 Bus1=254449495.3 Phases=1 kV=13.8564 XFKVA=50.0 PF=0.95 yearly=YearlyC daily=DailyC
New Load.254448239_1 Bus1=254448239.1 Phases=1 kV=13.8564 XFKVA=25.0 PF=0.95 yearly=YearlyA daily=DailyA
New Load.254448167_3 Bus1=254448167.3 Phases=1 kV=13.8564 XFKVA=15.0 PF=0.95 yearly=YearlyC daily=DailyC
New Load.254454656_1 Bus1=254454656.1 Phases=1 kV=13.8564 XFKVA=50.0 PF=0.95 yearly=YearlyA daily=DailyA
New Load.254460313_2 Bus1=254460313.2 Phases=1 kV=13.8564 XFKVA=15.0 PF=0.95 yearly=YearlyB daily=DailyB
New Load.254461012_3 Bus1=254461012.3 Phases=1 kV=13.8564 XFKVA=25.0 PF=0.95 yearly=YearlyC daily=DailyC
New Load.254461087_3 Bus1=254461087.3 Phases=1 kV=13.8564 XFKVA=25.0 PF=0.95 yearly=YearlyC daily=DailyC
New Load.254455085_2 Bus1=254455085.2 Phases=1 kV=13.8564 XFKVA=25.0 PF=0.95 yearly=YearlyB daily=DailyB
New Load.254449655_3 Bus1=254449655.3 Phases=1 kV=13.8564 XFKVA=15.0 PF=0.95 yearly=YearlyC daily=DailyC
New Load.254454306_3 Bus1=254454306.3 Phases=1 kV=13.8564 XFKVA=10.0 PF=0.95 yearly=YearlyC daily=DailyC
New Load.254460069_3 Bus1=254460069.3 Phases=1 kV=13.8564 XFKVA=10.0 PF=0.95 yearly=YearlyC daily=DailyC
New Load.254432538_1 Bus1=254432538.1 Phases=1 kV=13.8564 XFKVA=50.0 PF=0.95 yearly=YearlyA daily=DailyA
New Load.254432538_2 Bus1=254432538.2 Phases=1 kV=13.8564 XFKVA=50.0 PF=0.95 yearly=YearlyB daily=DailyB
New Load.254432538_3 Bus1=254432538.3 Phases=1 kV=13.8564 XFKVA=50.0 PF=0.95 yearly=YearlyC daily=DailyC
New Load.254460144_2 Bus1=254460144.2 Phases=1 kV=13.8564 XFKVA=25.0 PF=0.95 yearly=YearlyB daily=DailyB
New Load.254460398_3 Bus1=254460398.3 Phases=1 kV=13.8564 XFKVA=25.0 PF=0.95 yearly=YearlyC daily=DailyC
...
